CM Helix Antenna with Spider-web Ground Plane
CM Designed by Karatis Dimitrios (10775) - f0=400MHz
CE
GW  1  1  0.0000  0  0  0.0938  0  0  0.0037
GW  1  1  0.0938  0  0  0.1194  0  0  0.0037
GW  1  1  0.1194  0  0  0.1875  0  0  0.0037
GW  1  1  0.1875  0  0  0.2812  0  0  0.0037
GW  1  1  0.2812  0  0  0.3750  0  0  0.0037
GW  1  1  0.0000  0.0000  0  0.0663  0.0663  0  0.0037
GW  1  1  0.0663  0.0663  0  0.1326  0.1326  0  0.0037
GW  1  1  0.1326  0.1326  0  0.1989  0.1989  0  0.0037
GW  1  1  0.1989  0.1989  0  0.2652  0.2652  0  0.0037
GW  1  1  0.0000  0.0000  0  0.0000  0.0938  0  0.0037
GW  1  1  0.0000  0.0938  0  0.0000  0.1875  0  0.0037
GW  1  1  0.0000  0.1875  0  0.0000  0.2812  0  0.0037
GW  1  1  0.0000  0.2812  0  0.0000  0.3750  0  0.0037
GW  1  1  -0.0000  0.0000  0  -0.0663  0.0663  0  0.0037
GW  1  1  -0.0663  0.0663  0  -0.1326  0.1326  0  0.0037
GW  1  1  -0.1326  0.1326  0  -0.1989  0.1989  0  0.0037
GW  1  1  -0.1989  0.1989  0  -0.2652  0.2652  0  0.0037
GW  1  1  -0.0000  0.0000  0  -0.0938  0.0000  0  0.0037
GW  1  1  -0.0938  0.0000  0  -0.1875  0.0000  0  0.0037
GW  1  1  -0.1875  0.0000  0  -0.2812  0.0000  0  0.0037
GW  1  1  -0.2812  0.0000  0  -0.3750  0.0000  0  0.0037
GW  1  1  -0.0000  -0.0000  0  -0.0663  -0.0663  0  0.0037
GW  1  1  -0.0663  -0.0663  0  -0.1326  -0.1326  0  0.0037
GW  1  1  -0.1326  -0.1326  0  -0.1989  -0.1989  0  0.0037
GW  1  1  -0.1989  -0.1989  0  -0.2652  -0.2652  0  0.0037
GW  1  1  0.0000  -0.0000  0  0.0000  -0.0938  0  0.0037
GW  1  1  0.0000  -0.0938  0  0.0000  -0.1875  0  0.0037
GW  1  1  0.0000  -0.1875  0  0.0000  -0.2812  0  0.0037
GW  1  1  0.0000  -0.2812  0  0.0000  -0.3750  0  0.0037
GW  1  1  0.0000  -0.0000  0  0.0663  -0.0663  0  0.0037
GW  1  1  0.0663  -0.0663  0  0.1326  -0.1326  0  0.0037
GW  1  1  0.1326  -0.1326  0  0.1989  -0.1989  0  0.0037
GW  1  1  0.1989  -0.1989  0  0.2652  -0.2652  0  0.0037
GW  2  3  0.0938  0.0000  0  0.0663  0.0663  0  0.0037
GW  2  3  0.0663  0.0663  0  0.0000  0.0938  0  0.0037
GW  2  3  0.0000  0.0938  0  -0.0663  0.0663  0  0.0037
GW  2  3  -0.0663  0.0663  0  -0.0938  0.0000  0  0.0037
GW  2  3  -0.0938  0.0000  0  -0.0663  -0.0663  0  0.0037
GW  2  3  -0.0663  -0.0663  0  0.0000  -0.0938  0  0.0037
GW  2  3  0.0000  -0.0938  0  0.0663  -0.0663  0  0.0037
GW  2  3  0.0663  -0.0663  0  0.0938  0.0000  0  0.0037
GW  2  3  0.1875  0.0000  0  0.1326  0.1326  0  0.0037
GW  2  3  0.1326  0.1326  0  0.0000  0.1875  0  0.0037
GW  2  3  0.0000  0.1875  0  -0.1326  0.1326  0  0.0037
GW  2  3  -0.1326  0.1326  0  -0.1875  0.0000  0  0.0037
GW  2  3  -0.1875  0.0000  0  -0.1326  -0.1326  0  0.0037
GW  2  3  -0.1326  -0.1326  0  0.0000  -0.1875  0  0.0037
GW  2  3  0.0000  -0.1875  0  0.1326  -0.1326  0  0.0037
GW  2  3  0.1326  -0.1326  0  0.1875  0.0000  0  0.0037
GW  2  3  0.2812  0.0000  0  0.1989  0.1989  0  0.0037
GW  2  3  0.1989  0.1989  0  0.0000  0.2812  0  0.0037
GW  2  3  0.0000  0.2812  0  -0.1989  0.1989  0  0.0037
GW  2  3  -0.1989  0.1989  0  -0.2812  0.0000  0  0.0037
GW  2  3  -0.2812  0.0000  0  -0.1989  -0.1989  0  0.0037
GW  2  3  -0.1989  -0.1989  0  0.0000  -0.2812  0  0.0037
GW  2  3  0.0000  -0.2812  0  0.1989  -0.1989  0  0.0037
GW  2  3  0.1989  -0.1989  0  0.2812  0.0000  0  0.0037
GW  2  3  0.3750  0.0000  0  0.2652  0.2652  0  0.0037
GW  2  3  0.2652  0.2652  0  0.0000  0.3750  0  0.0037
GW  2  3  0.0000  0.3750  0  -0.2652  0.2652  0  0.0037
GW  2  3  -0.2652  0.2652  0  -0.3750  0.0000  0  0.0037
GW  2  3  -0.3750  0.0000  0  -0.2652  -0.2652  0  0.0037
GW  2  3  -0.2652  -0.2652  0  0.0000  -0.3750  0  0.0037
GW  2  3  0.0000  -0.3750  0  0.2652  -0.2652  0  0.0037
GW  2  3  0.2652  -0.2652  0  0.3750  0.0000  0  0.0037
GW  100  1  0.1194  0  0  0.1194  0  0.0187  0.0037
GW  4  1  0.1194  0.0000  0.0187  0.1113  0.0431  0.0298  0.0037
GW  4  1  0.1113  0.0431  0.0298  0.0882  0.0804  0.0408  0.0037
GW  4  1  0.0882  0.0804  0.0408  0.0532  0.1069  0.0518  0.0037
GW  4  1  0.0532  0.1069  0.0518  0.0110  0.1189  0.0629  0.0037
GW  4  1  0.0110  0.1189  0.0629  -0.0327  0.1148  0.0739  0.0037
GW  4  1  -0.0327  0.1148  0.0739  -0.0719  0.0953  0.0849  0.0037
GW  4  1  -0.0719  0.0953  0.0849  -0.1015  0.0628  0.0960  0.0037
GW  4  1  -0.1015  0.0628  0.0960  -0.1173  0.0219  0.1070  0.0037
GW  4  1  -0.1173  0.0219  0.1070  -0.1173  -0.0219  0.1180  0.0037
GW  4  1  -0.1173  -0.0219  0.1180  -0.1015  -0.0628  0.1290  0.0037
GW  4  1  -0.1015  -0.0628  0.1290  -0.0719  -0.0953  0.1401  0.0037
GW  4  1  -0.0719  -0.0953  0.1401  -0.0327  -0.1148  0.1511  0.0037
GW  4  1  -0.0327  -0.1148  0.1511  0.0110  -0.1189  0.1621  0.0037
GW  4  1  0.0110  -0.1189  0.1621  0.0532  -0.1069  0.1732  0.0037
GW  4  1  0.0532  -0.1069  0.1732  0.0882  -0.0804  0.1842  0.0037
GW  4  1  0.0882  -0.0804  0.1842  0.1113  -0.0431  0.1952  0.0037
GW  4  1  0.1113  -0.0431  0.1952  0.1194  -0.0000  0.2062  0.0037
GW  4  1  0.1194  -0.0000  0.2062  0.1113  0.0431  0.2173  0.0037
GW  4  1  0.1113  0.0431  0.2173  0.0882  0.0804  0.2283  0.0037
GW  4  1  0.0882  0.0804  0.2283  0.0532  0.1069  0.2393  0.0037
GW  4  1  0.0532  0.1069  0.2393  0.0110  0.1189  0.2504  0.0037
GW  4  1  0.0110  0.1189  0.2504  -0.0327  0.1148  0.2614  0.0037
GW  4  1  -0.0327  0.1148  0.2614  -0.0719  0.0953  0.2724  0.0037
GW  4  1  -0.0719  0.0953  0.2724  -0.1015  0.0628  0.2835  0.0037
GW  4  1  -0.1015  0.0628  0.2835  -0.1173  0.0219  0.2945  0.0037
GW  4  1  -0.1173  0.0219  0.2945  -0.1173  -0.0219  0.3055  0.0037
GW  4  1  -0.1173  -0.0219  0.3055  -0.1015  -0.0628  0.3165  0.0037
GW  4  1  -0.1015  -0.0628  0.3165  -0.0719  -0.0953  0.3276  0.0037
GW  4  1  -0.0719  -0.0953  0.3276  -0.0327  -0.1148  0.3386  0.0037
GW  4  1  -0.0327  -0.1148  0.3386  0.0110  -0.1189  0.3496  0.0037
GW  4  1  0.0110  -0.1189  0.3496  0.0532  -0.1069  0.3607  0.0037
GW  4  1  0.0532  -0.1069  0.3607  0.0882  -0.0804  0.3717  0.0037
GW  4  1  0.0882  -0.0804  0.3717  0.1113  -0.0431  0.3827  0.0037
GW  4  1  0.1113  -0.0431  0.3827  0.1194  -0.0000  0.3937  0.0037
GW  4  1  0.1194  -0.0000  0.3937  0.1113  0.0431  0.4048  0.0037
GW  4  1  0.1113  0.0431  0.4048  0.0882  0.0804  0.4158  0.0037
GW  4  1  0.0882  0.0804  0.4158  0.0532  0.1069  0.4268  0.0037
GW  4  1  0.0532  0.1069  0.4268  0.0110  0.1189  0.4379  0.0037
GW  4  1  0.0110  0.1189  0.4379  -0.0327  0.1148  0.4489  0.0037
GW  4  1  -0.0327  0.1148  0.4489  -0.0719  0.0953  0.4599  0.0037
GW  4  1  -0.0719  0.0953  0.4599  -0.1015  0.0628  0.4710  0.0037
GW  4  1  -0.1015  0.0628  0.4710  -0.1173  0.0219  0.4820  0.0037
GW  4  1  -0.1173  0.0219  0.4820  -0.1173  -0.0219  0.4930  0.0037
GW  4  1  -0.1173  -0.0219  0.4930  -0.1015  -0.0628  0.5040  0.0037
GW  4  1  -0.1015  -0.0628  0.5040  -0.0719  -0.0953  0.5151  0.0037
GW  4  1  -0.0719  -0.0953  0.5151  -0.0327  -0.1148  0.5261  0.0037
GW  4  1  -0.0327  -0.1148  0.5261  0.0110  -0.1189  0.5371  0.0037
GW  4  1  0.0110  -0.1189  0.5371  0.0532  -0.1069  0.5482  0.0037
GW  4  1  0.0532  -0.1069  0.5482  0.0882  -0.0804  0.5592  0.0037
GW  4  1  0.0882  -0.0804  0.5592  0.1113  -0.0431  0.5702  0.0037
GW  4  1  0.1113  -0.0431  0.5702  0.1194  -0.0000  0.5813  0.0037
GW  4  1  0.1194  -0.0000  0.5813  0.1113  0.0431  0.5923  0.0037
GW  4  1  0.1113  0.0431  0.5923  0.0882  0.0804  0.6033  0.0037
GW  4  1  0.0882  0.0804  0.6033  0.0532  0.1069  0.6143  0.0037
GW  4  1  0.0532  0.1069  0.6143  0.0110  0.1189  0.6254  0.0037
GW  4  1  0.0110  0.1189  0.6254  -0.0327  0.1148  0.6364  0.0037
GW  4  1  -0.0327  0.1148  0.6364  -0.0719  0.0953  0.6474  0.0037
GW  4  1  -0.0719  0.0953  0.6474  -0.1015  0.0628  0.6585  0.0037
GW  4  1  -0.1015  0.0628  0.6585  -0.1173  0.0219  0.6695  0.0037
GW  4  1  -0.1173  0.0219  0.6695  -0.1173  -0.0219  0.6805  0.0037
GW  4  1  -0.1173  -0.0219  0.6805  -0.1015  -0.0628  0.6915  0.0037
GW  4  1  -0.1015  -0.0628  0.6915  -0.0719  -0.0953  0.7026  0.0037
GW  4  1  -0.0719  -0.0953  0.7026  -0.0327  -0.1148  0.7136  0.0037
GW  4  1  -0.0327  -0.1148  0.7136  0.0110  -0.1189  0.7246  0.0037
GW  4  1  0.0110  -0.1189  0.7246  0.0532  -0.1069  0.7357  0.0037
GW  4  1  0.0532  -0.1069  0.7357  0.0882  -0.0804  0.7467  0.0037
GW  4  1  0.0882  -0.0804  0.7467  0.1113  -0.0431  0.7577  0.0037
GW  4  1  0.1113  -0.0431  0.7577  0.1194  -0.0000  0.7688  0.0037
GW  4  1  0.1194  -0.0000  0.7688  0.1113  0.0431  0.7798  0.0037
GW  4  1  0.1113  0.0431  0.7798  0.0882  0.0804  0.7908  0.0037
GW  4  1  0.0882  0.0804  0.7908  0.0532  0.1069  0.8018  0.0037
GW  4  1  0.0532  0.1069  0.8018  0.0110  0.1189  0.8129  0.0037
GW  4  1  0.0110  0.1189  0.8129  -0.0327  0.1148  0.8239  0.0037
GW  4  1  -0.0327  0.1148  0.8239  -0.0719  0.0953  0.8349  0.0037
GW  4  1  -0.0719  0.0953  0.8349  -0.1015  0.0628  0.8460  0.0037
GW  4  1  -0.1015  0.0628  0.8460  -0.1173  0.0219  0.8570  0.0037
GW  4  1  -0.1173  0.0219  0.8570  -0.1173  -0.0219  0.8680  0.0037
GW  4  1  -0.1173  -0.0219  0.8680  -0.1015  -0.0628  0.8790  0.0037
GW  4  1  -0.1015  -0.0628  0.8790  -0.0719  -0.0953  0.8901  0.0037
GW  4  1  -0.0719  -0.0953  0.8901  -0.0327  -0.1148  0.9011  0.0037
GW  4  1  -0.0327  -0.1148  0.9011  0.0110  -0.1189  0.9121  0.0037
GW  4  1  0.0110  -0.1189  0.9121  0.0532  -0.1069  0.9232  0.0037
GW  4  1  0.0532  -0.1069  0.9232  0.0882  -0.0804  0.9342  0.0037
GW  4  1  0.0882  -0.0804  0.9342  0.1113  -0.0431  0.9452  0.0037
GW  4  1  0.1113  -0.0431  0.9452  0.1194  -0.0000  0.9563  0.0037
GW  4  1  0.1194  -0.0000  0.9563  0.1113  0.0431  0.9673  0.0037
GW  4  1  0.1113  0.0431  0.9673  0.0882  0.0804  0.9783  0.0037
GW  4  1  0.0882  0.0804  0.9783  0.0532  0.1069  0.9893  0.0037
GW  4  1  0.0532  0.1069  0.9893  0.0110  0.1189  1.0004  0.0037
GW  4  1  0.0110  0.1189  1.0004  -0.0327  0.1148  1.0114  0.0037
GW  4  1  -0.0327  0.1148  1.0114  -0.0719  0.0953  1.0224  0.0037
GW  4  1  -0.0719  0.0953  1.0224  -0.1015  0.0628  1.0335  0.0037
GW  4  1  -0.1015  0.0628  1.0335  -0.1173  0.0219  1.0445  0.0037
GW  4  1  -0.1173  0.0219  1.0445  -0.1173  -0.0219  1.0555  0.0037
GW  4  1  -0.1173  -0.0219  1.0555  -0.1015  -0.0628  1.0665  0.0037
GW  4  1  -0.1015  -0.0628  1.0665  -0.0719  -0.0953  1.0776  0.0037
GW  4  1  -0.0719  -0.0953  1.0776  -0.0327  -0.1148  1.0886  0.0037
GW  4  1  -0.0327  -0.1148  1.0886  0.0110  -0.1189  1.0996  0.0037
GW  4  1  0.0110  -0.1189  1.0996  0.0532  -0.1069  1.1107  0.0037
GW  4  1  0.0532  -0.1069  1.1107  0.0882  -0.0804  1.1217  0.0037
GW  4  1  0.0882  -0.0804  1.1217  0.1113  -0.0431  1.1327  0.0037
GW  4  1  0.1113  -0.0431  1.1327  0.1194  -0.0000  1.1438  0.0037
GW  4  1  0.1194  -0.0000  1.1438  0.1113  0.0431  1.1548  0.0037
GW  4  1  0.1113  0.0431  1.1548  0.0882  0.0804  1.1658  0.0037
GW  4  1  0.0882  0.0804  1.1658  0.0532  0.1069  1.1768  0.0037
GW  4  1  0.0532  0.1069  1.1768  0.0110  0.1189  1.1879  0.0037
GW  4  1  0.0110  0.1189  1.1879  -0.0327  0.1148  1.1989  0.0037
GW  4  1  -0.0327  0.1148  1.1989  -0.0719  0.0953  1.2099  0.0037
GW  4  1  -0.0719  0.0953  1.2099  -0.1015  0.0628  1.2210  0.0037
GW  4  1  -0.1015  0.0628  1.2210  -0.1173  0.0219  1.2320  0.0037
GW  4  1  -0.1173  0.0219  1.2320  -0.1173  -0.0219  1.2430  0.0037
GW  4  1  -0.1173  -0.0219  1.2430  -0.1015  -0.0628  1.2540  0.0037
GW  4  1  -0.1015  -0.0628  1.2540  -0.0719  -0.0953  1.2651  0.0037
GW  4  1  -0.0719  -0.0953  1.2651  -0.0327  -0.1148  1.2761  0.0037
GW  4  1  -0.0327  -0.1148  1.2761  0.0110  -0.1189  1.2871  0.0037
GW  4  1  0.0110  -0.1189  1.2871  0.0532  -0.1069  1.2982  0.0037
GW  4  1  0.0532  -0.1069  1.2982  0.0882  -0.0804  1.3092  0.0037
GW  4  1  0.0882  -0.0804  1.3092  0.1113  -0.0431  1.3202  0.0037
GW  4  1  0.1113  -0.0431  1.3202  0.1194  -0.0000  1.3313  0.0037
GW  4  1  0.1194  -0.0000  1.3313  0.1113  0.0431  1.3423  0.0037
GW  4  1  0.1113  0.0431  1.3423  0.0882  0.0804  1.3533  0.0037
GW  4  1  0.0882  0.0804  1.3533  0.0532  0.1069  1.3643  0.0037
GW  4  1  0.0532  0.1069  1.3643  0.0110  0.1189  1.3754  0.0037
GW  4  1  0.0110  0.1189  1.3754  -0.0327  0.1148  1.3864  0.0037
GW  4  1  -0.0327  0.1148  1.3864  -0.0719  0.0953  1.3974  0.0037
GW  4  1  -0.0719  0.0953  1.3974  -0.1015  0.0628  1.4085  0.0037
GW  4  1  -0.1015  0.0628  1.4085  -0.1173  0.0219  1.4195  0.0037
GW  4  1  -0.1173  0.0219  1.4195  -0.1173  -0.0219  1.4305  0.0037
GW  4  1  -0.1173  -0.0219  1.4305  -0.1015  -0.0628  1.4415  0.0037
GW  4  1  -0.1015  -0.0628  1.4415  -0.0719  -0.0953  1.4526  0.0037
GW  4  1  -0.0719  -0.0953  1.4526  -0.0327  -0.1148  1.4636  0.0037
GW  4  1  -0.0327  -0.1148  1.4636  0.0110  -0.1189  1.4746  0.0037
GW  4  1  0.0110  -0.1189  1.4746  0.0532  -0.1069  1.4857  0.0037
GW  4  1  0.0532  -0.1069  1.4857  0.0882  -0.0804  1.4967  0.0037
GW  4  1  0.0882  -0.0804  1.4967  0.1113  -0.0431  1.5077  0.0037
GW  4  1  0.1113  -0.0431  1.5077  0.1194  -0.0000  1.5188  0.0037
GW  4  1  0.1194  -0.0000  1.5188  0.1113  0.0431  1.5298  0.0037
GW  4  1  0.1113  0.0431  1.5298  0.0882  0.0804  1.5408  0.0037
GW  4  1  0.0882  0.0804  1.5408  0.0532  0.1069  1.5518  0.0037
GW  4  1  0.0532  0.1069  1.5518  0.0110  0.1189  1.5629  0.0037
GW  4  1  0.0110  0.1189  1.5629  -0.0327  0.1148  1.5739  0.0037
GW  4  1  -0.0327  0.1148  1.5739  -0.0719  0.0953  1.5849  0.0037
GW  4  1  -0.0719  0.0953  1.5849  -0.1015  0.0628  1.5960  0.0037
GW  4  1  -0.1015  0.0628  1.5960  -0.1173  0.0219  1.6070  0.0037
GW  4  1  -0.1173  0.0219  1.6070  -0.1173  -0.0219  1.6180  0.0037
GW  4  1  -0.1173  -0.0219  1.6180  -0.1015  -0.0628  1.6290  0.0037
GW  4  1  -0.1015  -0.0628  1.6290  -0.0719  -0.0953  1.6401  0.0037
GW  4  1  -0.0719  -0.0953  1.6401  -0.0327  -0.1148  1.6511  0.0037
GW  4  1  -0.0327  -0.1148  1.6511  0.0110  -0.1189  1.6621  0.0037
GW  4  1  0.0110  -0.1189  1.6621  0.0532  -0.1069  1.6732  0.0037
GW  4  1  0.0532  -0.1069  1.6732  0.0882  -0.0804  1.6842  0.0037
GW  4  1  0.0882  -0.0804  1.6842  0.1113  -0.0431  1.6952  0.0037
GW  4  1  0.1113  -0.0431  1.6952  0.1194  -0.0000  1.7063  0.0037
GW  4  1  0.1194  -0.0000  1.7063  0.1113  0.0431  1.7173  0.0037
GW  4  1  0.1113  0.0431  1.7173  0.0882  0.0804  1.7283  0.0037
GW  4  1  0.0882  0.0804  1.7283  0.0532  0.1069  1.7393  0.0037
GW  4  1  0.0532  0.1069  1.7393  0.0110  0.1189  1.7504  0.0037
GW  4  1  0.0110  0.1189  1.7504  -0.0327  0.1148  1.7614  0.0037
GW  4  1  -0.0327  0.1148  1.7614  -0.0719  0.0953  1.7724  0.0037
GW  4  1  -0.0719  0.0953  1.7724  -0.1015  0.0628  1.7835  0.0037
GW  4  1  -0.1015  0.0628  1.7835  -0.1173  0.0219  1.7945  0.0037
GW  4  1  -0.1173  0.0219  1.7945  -0.1173  -0.0219  1.8055  0.0037
GW  4  1  -0.1173  -0.0219  1.8055  -0.1015  -0.0628  1.8165  0.0037
GW  4  1  -0.1015  -0.0628  1.8165  -0.0719  -0.0953  1.8276  0.0037
GW  4  1  -0.0719  -0.0953  1.8276  -0.0327  -0.1148  1.8386  0.0037
GW  4  1  -0.0327  -0.1148  1.8386  0.0110  -0.1189  1.8496  0.0037
GW  4  1  0.0110  -0.1189  1.8496  0.0532  -0.1069  1.8607  0.0037
GW  4  1  0.0532  -0.1069  1.8607  0.0882  -0.0804  1.8717  0.0037
GW  4  1  0.0882  -0.0804  1.8717  0.1113  -0.0431  1.8827  0.0037
GW  4  1  0.1113  -0.0431  1.8827  0.1194  -0.0000  1.8938  0.0037
GE  0
EX  0  100  1  0  1.0  0.0
FR  0  1  0  0  400.00  0
EN
