CM Discone Antenna Geometry Template
CM Designed for lambda = 0.6m
CE
GW 1 19 0 0 0 0.204000 0.000000 0 0.001500
GW 2 19 0 0 0 0.144250 0.144250 0 0.001500
GW 3 19 0 0 0 0.000000 0.204000 0 0.001500
GW 4 19 0 0 0 -0.144250 0.144250 0 0.001500
GW 5 19 0 0 0 -0.204000 0.000000 0 0.001500
GW 6 19 0 0 0 -0.144250 -0.144250 0 0.001500
GW 7 19 0 0 0 -0.000000 -0.204000 0 0.001500
GW 8 19 0 0 0 0.144250 -0.144250 0 0.001500
GW 9 19 0 0 -0.030000 0.150000 0.000000 -0.289808 0.001500
GW 10 19 0 0 -0.030000 0.106066 0.106066 -0.289808 0.001500
GW 11 19 0 0 -0.030000 0.000000 0.150000 -0.289808 0.001500
GW 12 19 0 0 -0.030000 -0.106066 0.106066 -0.289808 0.001500
GW 13 19 0 0 -0.030000 -0.150000 0.000000 -0.289808 0.001500
GW 14 19 0 0 -0.030000 -0.106066 -0.106066 -0.289808 0.001500
GW 15 19 0 0 -0.030000 -0.000000 -0.150000 -0.289808 0.001500
GW 16 19 0 0 -0.030000 0.106066 -0.106066 -0.289808 0.001500
GW 17 1 0 0 0 0 0 -0.030000 0.001500
GE 0
EX 0 17 1 0 1 0
FR 0 1 0 0 500
EN
