CM Folded Dipole Antenna - f0=60MHz
CM Designed by Karatis Dimitrios (10775)
CE
GW	1	31	-0.1250	0	-1.2500	-0.1250	0	1.2500	0.0125
GW	2	31	0.1250	0	-1.2500	0.1250	0	1.2500	0.0125
GW	3	3	-0.1250	0	1.2500	0.1250	0	1.2500	0.0125
GW	4	3	-0.1250	0	-1.2500	0.1250	0	-1.2500	0.0125
GE	0
GN	-1
EK
EX	0	1	16	0	1.0	0	0
FR	0	0	0	0	67	0
EN
