CM Folded Dipole Antenna - f0=60MHz
CM Designed by Karatis Dimitrios (10775)
CE
GW  1  31  -0.0250  0  -1.2500  -0.0250  0  1.2500  0.0125
GW  2  31  0.0250  0  -1.2500  0.0250  0  1.2500  0.0125
GW  3  1  -0.0250  0  1.2500  0.0250  0  1.2500  0.0125
GW  4  1  -0.0250  0  -1.2500  0.0250  0  -1.2500  0.0125
GE  0
EX  0  1  16  0  1.0  0.0
FR  0  1  0  0  60.00  0
EN
