CM Folded Dipole Antenna - f0=60MHz
CM Designed by Karatis Dimitrios (10775)
CE
GW	1	15	-0.6250	0	-1.2500	-0.6250	0	1.2500	0.0125
GW	2	15	0.6250	0	-1.2500	0.6250	0	1.2500	0.0125
GW	3	7	-0.6250	0	1.2500	0.6250	0	1.2500	0.0125
GW	4	7	-0.6250	0	-1.2500	0.6250	0	-1.2500	0.0125
GE	0
GN	-1
EK
EX	0	1	8	0	1.0	0	0
FR	0	0	0	0	57.5	0
EN
